/*--------------------------------*- C++ -*----------------------------------*\
| =========                 |                                                 |
| \\      /  F ield         | OpenFOAM: The Open Source CFD Toolbox           |
|  \\    /   O peration     | Version:  2.3.0                                 |
|   \\  /    A nd           | Web:      www.OpenFOAM.org                      |
|    \\/     M anipulation  |                                                 |
\*---------------------------------------------------------------------------*/
FoamFile
{
    version     2.0;
    format      ascii;
    class       dictionary;
    location    "constant";
    object      phaseProperties;
}
// * * * * * * * * * * * * * * * * * * * * * * * * * * * * * * * * * * * * * //

phases (tnt air);
transportPhaseDensity yes;
air
{
    type basic;
    thermoType
    {
        transport   const;
        thermo      eConst;
        equationOfState idealGas;
    }
    equationOfState
    {
        gamma           1.4;
        a               0;
    }
    specie
    {
        molWeight       28.97;
    }
    transport
    {
        mu              0;              // Viscosity
        Pr              1;              // Prandtl number
    }
    thermodynamics
    {
        Cv          718;           // Heat capacity
        Hf          0.0;
    }

    residualRho     1e-6;
    residualAlpha   1e-6;
}



water
{
    type basic;
    calculateDensity yes;
    thermoType
    {
        transport   const;
        thermo      eConst;
        equationOfState linearTillotson;
    }
    equationOfState
    {
        p0      1e5;
        rho0    1000.0;
        e0      3.542e5;
        omega   0.28;
        A       2.2e9;
        B       9.94e9;
        C       14.57e9;
        pCav    5000;
    }
    specie
    {
        molWeight       18;
    }
    transport
    {
        mu              0;
        Pr              1;
    }
    thermodynamics
    {
        type        eConst;
        Cv          2400; // Give correct reference temperature
        Hf          0;
    }

    residualRho     1e-6;
    residualAlpha   1e-6;
}

tnt
{
    type basic;
    calculateDensity yes;
//     reactants
//     {
//         thermoType
//         {
//             transport   const;
//             thermo      eConst;
//             equationOfState Murnaghan;
//         }
//         equationOfState
//         {
//             Gamma           0.29;
//             rho0            1630;
//             K0              0;
//             pRef            101298;
//         }
//         specie
//         {
//             molWeight       227.13;
//         }
//         transport
//         {
//             mu              0;              // Viscosity
//             Pr              1;              // Prandtl number
//         }
//         thermodynamics
//         {
//             Cv              1095;           // Heat capacity
//             Hf              0.0;
//         }
//     }
//     products
//     {
        thermoType
        {
            transport   const;
            thermo      eConst;
            equationOfState JWL;
        }
        equationOfState
        {
            rho0        1630;
            A           371.21e9;
            B           3.23e9;
            R1          4.15;
            R2          0.95;
            omega       0.3;
        }
        specie
        {
            molWeight       55.0;
        }
        transport
        {
            mu              0;              // Viscosity
            Pr              1;              // Prandtl number
        }
        thermodynamics
        {
            Cv              1400;           // Heat capacity
            Hf              0.0;
        }
//     }

    activationModel none;
    initiation
    {
        E0              0.0;

        points     ();     // Detonation points
        vDet       6930;            // Detonation velocity [m/s]
    }

    residualRho     1e-6;           // Minimum density of the phase
    residualAlpha   1e-6;          // Minimum volume fraction used for division
}


// ************************************************************************* //
