<?xml version="1.0" encoding="ISO-8859-1"?>
<febio_spec version="3.0">
	<Module type="explicit-solid"/>
	<Control>
		<analysis>DYNAMIC</analysis>
		<time_steps>500000</time_steps>
		<step_size>1e-07</step_size>
		<plot_stride>500</plot_stride>
		<solver>
			<mass_lumping>1</mass_lumping>
		</solver>
	</Control>
	<Material>
		<material id="1" name="Material1" type="neo-Hookean">
			<density>1000</density>
			<E>5000000</E>
			<v>0.32</v>
		</material>
	</Material>
	<Mesh>
		<Nodes name="Object01">
			<node id="1">-0.0635085329,-0.0635085329,-0.0635085329</node>
			<node id="2">-0.0590113066,-0.0656417012,-0.0656417012</node>
			<node id="3">-0.0543708578,-0.0676158592,-0.0676158592</node>
			<node id="4">-0.0495985672,-0.0694261566,-0.0694261566</node>
			<node id="5">-0.0447060391,-0.0710681677,-0.0710681677</node>
			<node id="6">-0.0397051387,-0.0725379288,-0.0725379288</node>
			<node id="7">-0.0346079841,-0.0738318637,-0.0738318637</node>
			<node id="8">-0.0294269454,-0.0749468282,-0.0749468282</node>
			<node id="9">-0.0241745971,-0.0758801326,-0.0758801326</node>
			<node id="10">-0.0188636687,-0.0766295046,-0.0766295046</node>
			<node id="11">-0.0135069964,-0.077193141,-0.077193141</node>
			<node id="12">-0.008117483,-0.0775696635,-0.0775696635</node>
			<node id="13">-0.00270808744,-0.0777581707,-0.0777581707</node>
			<node id="14">0.00270808744,-0.0777581707,-0.0777581707</node>
			<node id="15">0.008117483,-0.0775696635,-0.0775696635</node>
			<node id="16">0.0135069964,-0.077193141,-0.077193141</node>
			<node id="17">0.0188636687,-0.0766295046,-0.0766295046</node>
			<node id="18">0.0241745971,-0.0758801326,-0.0758801326</node>
			<node id="19">0.0294269454,-0.0749468282,-0.0749468282</node>
			<node id="20">0.0346079841,-0.0738318637,-0.0738318637</node>
<!-- ... 3732 like lines cut -->
		</Nodes>
		<Elements type="tri3" name="Part2">
			<elem id="1">2,28,27</elem>
			<elem id="2">27,1,2</elem>
			<elem id="3">28,54,53</elem>
			<elem id="4">53,27,28</elem>
			<elem id="5">54,80,79</elem>
			<elem id="6">79,53,54</elem>
			<elem id="7">80,106,105</elem>
			<elem id="8">105,79,80</elem>
			<elem id="9">106,132,131</elem>
			<elem id="10">131,105,106</elem>
			<elem id="11">132,158,157</elem>
			<elem id="12">157,131,132</elem>
			<elem id="13">158,184,183</elem>
			<elem id="14">183,157,158</elem>
			<elem id="15">184,210,209</elem>
			<elem id="16">209,183,184</elem>
			<elem id="17">210,236,235</elem>
			<elem id="18">235,209,210</elem>
			<elem id="19">236,262,261</elem>
			<elem id="20">261,235,236</elem>
<!-- ... 7480 like lines cut -->
		</Elements>
		<NodeSet name="FixedDisplacement1">
			<n id="2778"/>
			<n id="2779"/>
			<n id="2780"/>
			<n id="2781"/>
			<n id="2782"/>
			<n id="2783"/>
			<n id="2801"/>
			<n id="2802"/>
			<n id="2803"/>
			<n id="2804"/>
			<n id="2805"/>
			<n id="2806"/>
			<n id="2807"/>
			<n id="2808"/>
			<n id="2824"/>
			<n id="2825"/>
			<n id="2826"/>
			<n id="2827"/>
			<n id="2828"/>
			<n id="2829"/>
<!-- ... 68 like lines cut -->
		</NodeSet>
		<Surface name="Solid">
			<tri3 id="1">2,28,27</tri3>
			<tri3 id="2">27,1,2</tri3>
			<tri3 id="3">28,54,53</tri3>
			<tri3 id="4">53,27,28</tri3>
			<tri3 id="5">54,80,79</tri3>
			<tri3 id="6">79,53,54</tri3>
			<tri3 id="7">80,106,105</tri3>
			<tri3 id="8">105,79,80</tri3>
			<tri3 id="9">106,132,131</tri3>
			<tri3 id="10">131,105,106</tri3>
			<tri3 id="11">132,158,157</tri3>
			<tri3 id="12">157,131,132</tri3>
			<tri3 id="13">158,184,183</tri3>
			<tri3 id="14">183,157,158</tri3>
			<tri3 id="15">184,210,209</tri3>
			<tri3 id="16">209,183,184</tri3>
			<tri3 id="17">210,236,235</tri3>
			<tri3 id="18">235,209,210</tri3>
			<tri3 id="19">236,262,261</tri3>
			<tri3 id="20">261,235,236</tri3>
<!-- ... 7480 like lines cut -->
		</Surface>
	</Mesh>
	<MeshDomains>
		<ShellDomain name="Part2" mat="Material1">
			<shell_normal_nodal>1</shell_normal_nodal>
		</ShellDomain>
	</MeshDomains>
	<MeshData>
		<ElementData var="shell thickness" elem_set="Part2">
			<e lid="1">0.001,0.001,0.001</e>
			<e lid="2">0.001,0.001,0.001</e>
			<e lid="3">0.001,0.001,0.001</e>
			<e lid="4">0.001,0.001,0.001</e>
			<e lid="5">0.001,0.001,0.001</e>
			<e lid="6">0.001,0.001,0.001</e>
			<e lid="7">0.001,0.001,0.001</e>
			<e lid="8">0.001,0.001,0.001</e>
			<e lid="9">0.001,0.001,0.001</e>
			<e lid="10">0.001,0.001,0.001</e>
			<e lid="11">0.001,0.001,0.001</e>
			<e lid="12">0.001,0.001,0.001</e>
			<e lid="13">0.001,0.001,0.001</e>
			<e lid="14">0.001,0.001,0.001</e>
			<e lid="15">0.001,0.001,0.001</e>
			<e lid="16">0.001,0.001,0.001</e>
			<e lid="17">0.001,0.001,0.001</e>
			<e lid="18">0.001,0.001,0.001</e>
			<e lid="19">0.001,0.001,0.001</e>
			<e lid="20">0.001,0.001,0.001</e>
<!-- ... 7480 like lines cut -->
		</ElementData>
		<SurfaceData name="Stress" generator="const" datatype="vec3" surface="Solid">
			<value>0.0, 0.0, 0.0</value>
		</SurfaceData>
	</MeshData>
	<Loads>
		<surface_load name="TractionLoad1" type="traction" surface="Solid">
			<scale>1</scale>
			<traction type="map">Stress</traction>
			<shell_bottom>0</shell_bottom>
		</surface_load>
	</Loads>
	<Output>
		<plotfile type="febio">
			<var type="displacement"/>
			<var type="shell thickness"/>
			<var type="stress"/>
                        <var type="parameter['fem.load[0].traction']=T"/>
		</plotfile>
	</Output>
</febio_spec>
